Version 4
SHEET 1 1040 680
WIRE 240 -128 144 -128
WIRE 144 -96 144 -128
WIRE 240 -80 240 -128
WIRE 144 48 144 -16
WIRE 144 48 -320 48
WIRE 624 48 144 48
WIRE -416 96 -528 96
WIRE -320 96 -320 48
WIRE -320 96 -416 96
WIRE -224 96 -320 96
WIRE -128 96 -224 96
WIRE 528 96 416 96
WIRE 624 96 624 48
WIRE 624 96 528 96
WIRE 720 96 624 96
WIRE 816 96 720 96
WIRE -528 112 -528 96
WIRE -128 112 -128 96
WIRE 416 112 416 96
WIRE 816 112 816 96
WIRE -416 128 -416 96
WIRE -224 128 -224 96
WIRE 528 128 528 96
WIRE 720 128 720 96
WIRE -592 160 -608 160
WIRE -48 160 -64 160
WIRE 352 160 336 160
WIRE 896 160 880 160
WIRE -528 256 -528 208
WIRE -416 256 -416 192
WIRE -416 256 -528 256
WIRE -384 256 -416 256
WIRE -224 256 -224 192
WIRE -224 256 -256 256
WIRE -128 256 -128 208
WIRE -128 256 -224 256
WIRE 416 256 416 208
WIRE 528 256 528 192
WIRE 528 256 416 256
WIRE 560 256 528 256
WIRE 720 256 720 192
WIRE 720 256 688 256
WIRE 816 256 816 208
WIRE 816 256 720 256
WIRE -128 304 -128 256
WIRE 816 304 816 256
WIRE -528 320 -528 256
WIRE 416 320 416 256
WIRE -416 336 -416 256
WIRE -224 336 -224 256
WIRE 528 336 528 256
WIRE 720 336 720 256
WIRE -48 352 -64 352
WIRE 896 352 880 352
WIRE -592 368 -608 368
WIRE 352 368 336 368
WIRE -528 448 -528 416
WIRE -416 448 -416 400
WIRE -416 448 -528 448
WIRE -320 448 -416 448
WIRE -224 448 -224 400
WIRE -224 448 -320 448
WIRE -128 448 -128 400
WIRE -128 448 -224 448
WIRE 416 448 416 416
WIRE 528 448 528 400
WIRE 528 448 416 448
WIRE 624 448 528 448
WIRE 720 448 720 400
WIRE 720 448 624 448
WIRE 816 448 816 400
WIRE 816 448 720 448
WIRE -320 480 -320 448
WIRE 624 480 624 448
FLAG -320 480 0
FLAG 624 480 0
FLAG 240 -80 0
SYMBOL npn -592 320 R0
WINDOW 0 31 33 Left 2
WINDOW 3 31 60 Left 2
SYMATTR InstName Q1
SYMATTR Value 2N2222
SYMBOL npn -64 304 M0
WINDOW 0 35 33 Left 2
WINDOW 3 31 61 Left 2
SYMATTR InstName Q2
SYMATTR Value 2N2222
SYMBOL diode -400 400 R180
WINDOW 0 -26 65 Left 2
WINDOW 3 -13 4 Left 2
SYMATTR InstName D1
SYMBOL diode -208 400 R180
WINDOW 0 24 64 Left 2
WINDOW 3 24 0 Left 2
SYMATTR InstName D2
SYMBOL pnp -592 112 R0
WINDOW 0 43 30 Left 2
WINDOW 3 31 58 Left 2
SYMATTR InstName Q3
SYMATTR Value 2N3906
SYMBOL pnp -64 112 M0
WINDOW 0 38 29 Left 2
WINDOW 3 32 57 Left 2
SYMATTR InstName Q4
SYMATTR Value 2N3906
SYMBOL diode -400 192 R180
WINDOW 0 -30 64 Left 2
WINDOW 3 -17 -4 Left 2
SYMATTR InstName D3
SYMBOL diode -208 192 R180
WINDOW 0 24 64 Left 2
WINDOW 3 24 0 Left 2
SYMATTR InstName D4
SYMBOL res -592 352 R90
WINDOW 0 0 56 VBottom 2
WINDOW 3 32 56 VTop 2
SYMATTR InstName R1
SYMATTR Value 10k
SYMBOL res 48 336 R90
WINDOW 0 0 56 VBottom 2
WINDOW 3 32 56 VTop 2
SYMATTR InstName R2
SYMATTR Value 10k
SYMBOL res -592 144 R90
WINDOW 0 0 56 VBottom 2
WINDOW 3 32 56 VTop 2
SYMATTR InstName R3
SYMATTR Value 10k
SYMBOL res 48 144 R90
WINDOW 0 0 56 VBottom 2
WINDOW 3 32 56 VTop 2
SYMATTR InstName R4
SYMATTR Value 10k
SYMBOL voltage 144 0 R180
WINDOW 0 24 96 Left 2
WINDOW 3 24 16 Left 2
WINDOW 123 0 0 Left 0
WINDOW 39 0 0 Left 0
SYMATTR InstName 9V_Battery
SYMATTR Value 9V
SYMBOL CUSTOM\\Motor -320 256 R0
SYMATTR InstName Motor
SYMBOL npn 352 320 R0
WINDOW 0 31 33 Left 2
WINDOW 3 31 60 Left 2
SYMATTR InstName Q5
SYMATTR Value 2N2222
SYMBOL npn 880 304 M0
WINDOW 0 35 33 Left 2
WINDOW 3 31 61 Left 2
SYMATTR InstName Q6
SYMATTR Value 2N2222
SYMBOL diode 544 400 R180
WINDOW 0 -26 65 Left 2
WINDOW 3 -13 4 Left 2
SYMATTR InstName D5
SYMBOL diode 736 400 R180
WINDOW 0 24 64 Left 2
WINDOW 3 24 0 Left 2
SYMATTR InstName D6
SYMBOL pnp 352 112 R0
WINDOW 0 43 30 Left 2
WINDOW 3 31 58 Left 2
SYMATTR InstName Q7
SYMATTR Value 2N3906
SYMBOL pnp 880 112 M0
WINDOW 0 38 29 Left 2
WINDOW 3 32 57 Left 2
SYMATTR InstName Q8
SYMATTR Value 2N3906
SYMBOL diode 544 192 R180
WINDOW 0 -30 64 Left 2
WINDOW 3 -17 -4 Left 2
SYMATTR InstName D7
SYMBOL diode 736 192 R180
WINDOW 0 24 64 Left 2
WINDOW 3 24 0 Left 2
SYMATTR InstName D8
SYMBOL res 352 352 R90
WINDOW 0 0 56 VBottom 2
WINDOW 3 32 56 VTop 2
SYMATTR InstName R5
SYMATTR Value 10k
SYMBOL res 992 336 R90
WINDOW 0 0 56 VBottom 2
WINDOW 3 32 56 VTop 2
SYMATTR InstName R6
SYMATTR Value 10k
SYMBOL res 352 144 R90
WINDOW 0 0 56 VBottom 2
WINDOW 3 32 56 VTop 2
SYMATTR InstName R7
SYMATTR Value 10k
SYMBOL res 992 144 R90
WINDOW 0 0 56 VBottom 2
WINDOW 3 32 56 VTop 2
SYMATTR InstName R8
SYMATTR Value 10k
SYMBOL CUSTOM\\Motor 624 256 R0
SYMATTR InstName Motor1
TEXT 32 160 Left 2 ;Pin5
TEXT 32 352 Left 2 ;Pin4
TEXT -688 160 Right 2 ;Pin3
TEXT -688 368 Right 2 ;Pin2
TEXT 200 152 Left 2 ;Pin7
TEXT 200 360 Left 2 ;Pin6
TEXT 984 152 Left 2 ;Pin9
TEXT 976 352 Left 2 ;Pin8
